functions/OneTimeScripts/validationAgainstOpenDSS_MATLAB/ieee123_1ph_created/results/powers24.csv
Element, Terminal, P(kW), Q(kvar),  P_Normal, Q_Normal, P_Emergency, Q_Emergency
"Line.L115"             ,   1,       512.2,       196.7,         0.0,         0.0,         0.0,         0.0
"Line.L115"             ,   2,      -511.0,      -194.2
"Line.L1"               ,   1,         4.4,         2.2,         0.0,         0.0,         0.0,         0.0
"Line.L1"               ,   2,        -4.4,        -2.2
"Line.L2"               ,   1,        21.9,        11.0,         0.0,         0.0,         0.0,         0.0
"Line.L2"               ,   2,       -21.9,       -11.0
"Line.L3"               ,   1,       475.9,       176.7,         0.0,         0.0,         0.0,         0.0
"Line.L3"               ,   2,      -475.2,      -175.1
"Line.L4"               ,   1,         8.8,         4.4,         0.0,         0.0,         0.0,         0.0
"Line.L4"               ,   2,        -8.8,        -4.4
"Line.L5"               ,   1,        13.1,         6.6,         0.0,         0.0,         0.0,         0.0
"Line.L5"               ,   2,       -13.1,        -6.6
"Line.L6"               ,   1,         8.8,         4.4,         0.0,         0.0,         0.0,         0.0
"Line.L6"               ,   2,        -8.8,        -4.4
"Line.L7"               ,   1,       470.8,       172.9,         0.0,         0.0,         0.0,         0.0
"Line.L7"               ,   2,      -470.3,      -171.9
"Line.L8"               ,   1,         4.4,         2.2,         0.0,         0.0,         0.0,         0.0
"Line.L8"               ,   2,        -4.4,        -2.2
"Line.L9"               ,   1,         8.6,        11.0,         0.0,         0.0,         0.0,         0.0
"Line.L9"               ,   2,        -8.6,       -11.0
"Line.L10"              ,   1,       457.3,       158.8,         0.0,         0.0,         0.0,         0.0
"Line.L10"              ,   2,      -456.6,      -157.3
"Line.L11"              ,   1,        13.1,         6.6,         0.0,         0.0,         0.0,         0.0
"Line.L11"              ,   2,       -13.1,        -6.6
"Line.L12"              ,   1,        21.9,        11.0,         0.0,         0.0,         0.0,         0.0
"Line.L12"              ,   2,       -21.9,       -10.9
"Line.L13"              ,   1,       161.5,       143.5,         0.0,         0.0,         0.0,         0.0
"Line.L13"              ,   2,      -161.1,      -142.7
"Line.L14"              ,   1,         8.8,         4.4,         0.0,         0.0,         0.0,         0.0
"Line.L14"              ,   2,        -8.8,        -4.4
"Line.L15"              ,   1,         4.4,         2.2,         0.0,         0.0,         0.0,         0.0
"Line.L15"              ,   2,        -4.4,        -2.2
"Line.L16"              ,   1,         8.8,         4.4,         0.0,         0.0,         0.0,         0.0
"Line.L16"              ,   2,        -8.8,        -4.4
"Line.L17"              ,   1,         4.4,         2.2,         0.0,         0.0,         0.0,         0.0
"Line.L17"              ,   2,        -4.4,        -2.2
"Line.L18"              ,   1,        17.5,         8.8,         0.0,         0.0,         0.0,         0.0
"Line.L18"              ,   2,       -17.5,        -8.8
"Line.L19"              ,   1,        48.0,        30.7,         0.0,         0.0,         0.0,         0.0
"Line.L19"              ,   2,       -48.0,       -30.7
"Line.L20"              ,   1,         8.8,         4.4,         0.0,         0.0,         0.0,         0.0
"Line.L20"              ,   2,        -8.8,        -4.4
"Line.L21"              ,   1,         8.8,         4.4,         0.0,         0.0,         0.0,         0.0
"Line.L21"              ,   2,        -8.8,        -4.4
"Line.L22"              ,   1,        39.2,        26.3,         0.0,         0.0,         0.0,         0.0
"Line.L22"              ,   2,       -39.2,       -26.3
"Line.L23"              ,   1,         8.8,         4.4,         0.0,         0.0,         0.0,         0.0
"Line.L23"              ,   2,        -8.8,        -4.4
"Line.L24"              ,   1,        30.5,        21.9,         0.0,         0.0,         0.0,         0.0
"Line.L24"              ,   2,       -30.5,       -21.9
"Line.L25"              ,   1,        17.5,         8.8,         0.0,         0.0,         0.0,         0.0
"Line.L25"              ,   2,       -17.5,        -8.8
"Line.L26"              ,   1,        13.0,        13.1,         0.0,         0.0,         0.0,         0.0
"Line.L26"              ,   2,       -13.0,       -13.1
"Line.L27"              ,   1,         8.8,         4.4,         0.0,         0.0,         0.0,         0.0
"Line.L27"              ,   2,        -8.8,        -4.4
"Line.L28"              ,   1,         8.8,         4.4,         0.0,         0.0,         0.0,         0.0
"Line.L28"              ,   2,        -8.8,        -4.4
"Line.L29"              ,   1,         8.8,         4.4,         0.0,         0.0,         0.0,         0.0
"Line.L29"              ,   2,        -8.8,        -4.4
"Line.L30"              ,   1,        17.5,         8.8,         0.0,         0.0,         0.0,         0.0
"Line.L30"              ,   2,       -17.5,        -8.8
"Line.L31"              ,   1,         8.8,         4.4,         0.0,         0.0,         0.0,         0.0
"Line.L31"              ,   2,        -8.8,        -4.4
"Line.L32"              ,   1,        -0.0,        -0.0,         0.0,         0.0,         0.0,         0.0
"Line.L32"              ,   2,        -0.0,        -0.0
"Line.L33"              ,   1,         4.4,         2.2,         0.0,         0.0,         0.0,         0.0
"Line.L33"              ,   2,        -4.4,        -2.2
"Line.L34"              ,   1,        13.1,         6.6,         0.0,         0.0,         0.0,         0.0
"Line.L34"              ,   2,       -13.1,        -6.6
"Line.L35"              ,   1,        17.5,         8.8,         0.0,         0.0,         0.0,         0.0
"Line.L35"              ,   2,       -17.5,        -8.8
"Line.L36"              ,   1,        69.2,        90.0,         0.0,         0.0,         0.0,         0.0
"Line.L36"              ,   2,       -69.2,       -89.9
"Line.L37"              ,   1,         8.8,         4.4,         0.0,         0.0,         0.0,         0.0
"Line.L37"              ,   2,        -8.8,        -4.4
"Line.L38"              ,   1,         8.8,         4.4,         0.0,         0.0,         0.0,         0.0
"Line.L38"              ,   2,        -8.8,        -4.4
"Line.L39"              ,   1,         4.4,         2.2,         0.0,         0.0,         0.0,         0.0
"Line.L39"              ,   2,        -4.4,        -2.2
"Line.L40"              ,   1,         4.4,         2.2,         0.0,         0.0,         0.0,         0.0
"Line.L40"              ,   2,        -4.4,        -2.2
"Line.L41"              ,   1,        64.8,        87.7,         0.0,         0.0,         0.0,         0.0
"Line.L41"              ,   2,       -64.7,       -87.7
"Line.L42"              ,   1,         8.8,         4.4,         0.0,         0.0,         0.0,         0.0
"Line.L42"              ,   2,        -8.8,        -4.4
"Line.L43"              ,   1,        51.6,        81.1,         0.0,         0.0,         0.0,         0.0
"Line.L43"              ,   2,       -51.6,       -81.1
"Line.L44"              ,   1,         8.8,         4.4,         0.0,         0.0,         0.0,         0.0
"Line.L44"              ,   2,        -8.8,        -4.4
"Line.L45"              ,   1,        42.8,        76.7,         0.0,         0.0,         0.0,         0.0
"Line.L45"              ,   2,       -42.8,       -76.7
"Line.L46"              ,   1,         4.4,         2.2,         0.0,         0.0,         0.0,         0.0
"Line.L46"              ,   2,        -4.4,        -2.2
"Line.L47"              ,   1,       -24.0,        32.9,         0.0,         0.0,         0.0,         0.0
"Line.L47"              ,   2,        24.0,       -32.9
"Line.L48"              ,   1,        43.8,        27.4,         0.0,         0.0,         0.0,         0.0
"Line.L48"              ,   2,       -43.8,       -27.4
"Line.L49"              ,   1,        13.1,         6.6,         0.0,         0.0,         0.0,         0.0
"Line.L49"              ,   2,       -13.1,        -6.6
"Line.L50"              ,   1,         4.4,         2.2,         0.0,         0.0,         0.0,         0.0
"Line.L50"              ,   2,        -4.4,        -2.2
"Line.L51"              ,   1,         0.0,        -0.0,         0.0,         0.0,         0.0,         0.0
"Line.L51"              ,   2,        -0.0,        -0.0
"Line.L52"              ,   1,       264.1,        -2.2,         0.0,         0.0,         0.0,         0.0
"Line.L52"              ,   2,      -264.0,         2.5
"Line.L53"              ,   1,       255.2,        -6.8,         0.0,         0.0,         0.0,         0.0
"Line.L53"              ,   2,      -255.2,         7.0
"Line.L54"              ,   1,         8.8,         4.4,         0.0,         0.0,         0.0,         0.0
"Line.L54"              ,   2,        -8.8,        -4.4
"Line.L55"              ,   1,       246.4,       -11.4,         0.0,         0.0,         0.0,         0.0
"Line.L55"              ,   2,      -246.2,        11.8
"Line.L56"              ,   1,         4.4,         2.2,         0.0,         0.0,         0.0,         0.0
"Line.L56"              ,   2,        -4.4,        -2.2
"Line.L57"              ,   1,         2.1,         4.4,         0.0,         0.0,         0.0,         0.0
"Line.L57"              ,   2,        -2.1,        -4.4
"Line.L58"              ,   1,       244.1,       -16.2,         0.0,         0.0,         0.0,         0.0
"Line.L58"              ,   2,      -243.6,        17.1
"Line.L59"              ,   1,         4.4,         2.2,         0.0,         0.0,         0.0,         0.0
"Line.L59"              ,   2,        -4.4,        -2.2
"Line.L60"              ,   1,         0.0,        -0.0,         0.0,         0.0,         0.0,         0.0
"Line.L60"              ,   2,        -0.0,         0.0
"Line.L61"              ,   1,        34.4,        45.9,         0.0,         0.0,         0.0,         0.0
"Line.L61"              ,   2,       -34.4,       -45.9
"Line.L62"              ,   1,        25.7,        41.5,         0.0,         0.0,         0.0,         0.0
"Line.L62"              ,   2,       -25.6,       -41.5
"Line.L63"              ,   1,        16.9,        37.2,         0.0,         0.0,         0.0,         0.0
"Line.L63"              ,   2,       -16.9,       -37.2
"Line.L64"              ,   1,         0.4,        29.5,         0.0,         0.0,         0.0,         0.0
"Line.L64"              ,   2,        -0.4,       -29.5
"Line.L65"              ,   1,        16.4,         7.6,         0.0,         0.0,         0.0,         0.0
"Line.L65"              ,   2,       -16.4,        -7.7
"Line.L66"              ,   1,        26.3,        13.2,         0.0,         0.0,         0.0,         0.0
"Line.L66"              ,   2,       -26.3,       -13.1
"Line.L67"              ,   1,        95.2,      -127.1,         0.0,         0.0,         0.0,         0.0
"Line.L67"              ,   2,       -95.1,       127.2
"Line.L68"              ,   1,        83.1,        48.3,         0.0,         0.0,         0.0,         0.0
"Line.L68"              ,   2,       -83.1,       -48.3
"Line.L69"              ,   1,        21.9,        11.0,         0.0,         0.0,         0.0,         0.0
"Line.L69"              ,   2,       -21.9,       -11.0
"Line.L70"              ,   1,        13.1,         6.6,         0.0,         0.0,         0.0,         0.0
"Line.L70"              ,   2,       -13.1,        -6.6
"Line.L71"              ,   1,         8.8,         4.4,         0.0,         0.0,         0.0,         0.0
"Line.L71"              ,   2,        -8.8,        -4.4
"Line.L72"              ,   1,        26.3,        13.2,         0.0,         0.0,         0.0,         0.0
"Line.L72"              ,   2,       -26.3,       -13.1
"Line.L73"              ,   1,        68.8,      -140.4,         0.0,         0.0,         0.0,         0.0
"Line.L73"              ,   2,       -68.8,       140.5
"Line.L74"              ,   1,        17.5,         8.8,         0.0,         0.0,         0.0,         0.0
"Line.L74"              ,   2,       -17.5,        -8.8
"Line.L75"              ,   1,         8.8,         4.4,         0.0,         0.0,         0.0,         0.0
"Line.L75"              ,   2,        -8.8,        -4.4
"Line.L76"              ,   1,        53.1,      -161.7,         0.0,         0.0,         0.0,         0.0
"Line.L76"              ,   2,       -53.0,       162.0
"Line.L77"              ,   1,        43.6,       -18.2,         0.0,         0.0,         0.0,         0.0
"Line.L77"              ,   2,       -43.6,        18.2
"Line.L78"              ,   1,        44.2,      -166.3,         0.0,         0.0,         0.0,         0.0
"Line.L78"              ,   2,       -44.2,       166.4
"Line.L79"              ,   1,         8.8,         4.4,         0.0,         0.0,         0.0,         0.0
"Line.L79"              ,   2,        -8.8,        -4.4
"Line.L80"              ,   1,        35.4,      -170.8,         0.0,         0.0,         0.0,         0.0
"Line.L80"              ,   2,       -35.3,       171.1
"Line.L81"              ,   1,        26.5,      -175.5,         0.0,         0.0,         0.0,         0.0
"Line.L81"              ,   2,       -26.5,       175.6
"Line.L82"              ,   1,        13.3,      -182.2,         0.0,         0.0,         0.0,         0.0
"Line.L82"              ,   2,       -13.2,       182.4
"Line.L83"              ,   1,        13.1,         6.6,         0.0,         0.0,         0.0,         0.0
"Line.L83"              ,   2,       -13.1,        -6.6
"Line.L84"              ,   1,         4.5,      -186.7,         0.0,         0.0,         0.0,         0.0
"Line.L84"              ,   2,        -4.4,       186.9
"Line.L85"              ,   1,         8.8,         4.4,         0.0,         0.0,         0.0,         0.0
"Line.L85"              ,   2,        -8.8,        -4.4
"Line.L86"              ,   1,        39.3,       -20.4,         0.0,         0.0,         0.0,         0.0
"Line.L86"              ,   2,       -39.2,        20.4
"Line.L87"              ,   1,         8.8,       -11.2,         0.0,         0.0,         0.0,         0.0
"Line.L87"              ,   2,        -8.8,        11.2
"Line.L88"              ,   1,        35.1,       -13.6,         0.0,         0.0,         0.0,         0.0
"Line.L88"              ,   2,       -35.1,        13.6
"Line.L89"              ,   1,         8.8,       -11.2,         0.0,         0.0,         0.0,         0.0
"Line.L89"              ,   2,        -8.8,        11.2
"Line.L90"              ,   1,        26.3,        -2.4,         0.0,         0.0,         0.0,         0.0
"Line.L90"              ,   2,       -26.3,         2.4
"Line.L91"              ,   1,         8.8,       -11.2,         0.0,         0.0,         0.0,         0.0
"Line.L91"              ,   2,        -8.8,        11.2
"Line.L92"              ,   1,        17.5,         8.8,         0.0,         0.0,         0.0,         0.0
"Line.L92"              ,   2,       -17.5,        -8.8
"Line.L93"              ,   1,         8.8,         4.4,         0.0,         0.0,         0.0,         0.0
"Line.L93"              ,   2,        -8.8,        -4.4
"Line.L94"              ,   1,         8.8,         4.4,         0.0,         0.0,         0.0,         0.0
"Line.L94"              ,   2,        -8.8,        -4.4
"Line.L95"              ,   1,         4.4,         2.2,         0.0,         0.0,         0.0,         0.0
"Line.L95"              ,   2,        -4.4,        -2.2
"Line.L96"              ,   1,        12.9,        13.1,         0.0,         0.0,         0.0,         0.0
"Line.L96"              ,   2,       -12.9,       -13.1
"Line.L97"              ,   1,         4.2,         8.8,         0.0,         0.0,         0.0,         0.0
"Line.L97"              ,   2,        -4.2,        -8.8
"Line.L98"              ,   1,        -4.6,         4.4,         0.0,         0.0,         0.0,         0.0
"Line.L98"              ,   2,         4.6,        -4.4
"Line.L99"              ,   1,         0.0,        -0.0,         0.0,         0.0,         0.0,         0.0
"Line.L99"              ,   2,        -0.0,         0.0
"Line.L118"             ,   1,        70.2,        35.1,         0.0,         0.0,         0.0,         0.0
"Line.L118"             ,   2,       -70.2,       -35.1
"Line.L100"             ,   1,        21.9,        11.0,         0.0,         0.0,         0.0,         0.0
"Line.L100"             ,   2,       -21.9,       -11.0
"Line.L101"             ,   1,        48.2,        24.1,         0.0,         0.0,         0.0,         0.0
"Line.L101"             ,   2,       -48.2,       -24.1
"Line.L102"             ,   1,        17.5,         8.8,         0.0,         0.0,         0.0,         0.0
"Line.L102"             ,   2,       -17.5,        -8.8
"Line.L103"             ,   1,         8.8,         4.4,         0.0,         0.0,         0.0,         0.0
"Line.L103"             ,   2,        -8.8,        -4.4
"Line.L104"             ,   1,        17.5,         8.8,         0.0,         0.0,         0.0,         0.0
"Line.L104"             ,   2,       -17.5,        -8.8
"Line.L105"             ,   1,        30.7,        15.4,         0.0,         0.0,         0.0,         0.0
"Line.L105"             ,   2,       -30.7,       -15.4
"Line.L106"             ,   1,         8.8,         4.4,         0.0,         0.0,         0.0,         0.0
"Line.L106"             ,   2,        -8.8,        -4.4
"Line.L107"             ,   1,        30.7,        15.4,         0.0,         0.0,         0.0,         0.0
"Line.L107"             ,   2,       -30.7,       -15.3
"Line.L108"             ,   1,         0.0,        -0.0,         0.0,         0.0,         0.0,         0.0
"Line.L108"             ,   2,         0.0,         0.0
"Line.L109"             ,   1,        21.9,        11.0,         0.0,         0.0,         0.0,         0.0
"Line.L109"             ,   2,       -21.9,       -11.0
"Line.L110"             ,   1,         4.4,         2.2,         0.0,         0.0,         0.0,         0.0
"Line.L110"             ,   2,        -4.4,        -2.2
"Line.L111"             ,   1,        17.5,         8.8,         0.0,         0.0,         0.0,         0.0
"Line.L111"             ,   2,       -17.5,        -8.8
"Line.L112"             ,   1,        13.1,         6.6,         0.0,         0.0,         0.0,         0.0
"Line.L112"             ,   2,       -13.1,        -6.6
"Line.L113"             ,   1,         4.4,         2.2,         0.0,         0.0,         0.0,         0.0
"Line.L113"             ,   2,        -4.4,        -2.2
"Line.L114"             ,   1,        95.5,       103.3,         0.0,         0.0,         0.0,         0.0
"Line.L114"             ,   2,       -95.5,      -103.1
"Line.L116"             ,   1,       273.2,         2.8,         0.0,         0.0,         0.0,         0.0
"Line.L116"             ,   2,      -272.9,        -2.2
"Line.L117"             ,   1,       204.8,       -65.3,         0.0,         0.0,         0.0,         0.0
"Line.L117"             ,   2,      -204.6,        65.6
"Line.SW1"              ,   1,       512.2,       196.7,         0.0,         0.0,         0.0,         0.0
"Line.SW1"              ,   2,      -512.2,      -196.7
"Line.SW2"              ,   1,       273.2,         2.8,         0.0,         0.0,         0.0,         0.0
"Line.SW2"              ,   2,      -273.2,        -2.8
"Line.SW3"              ,   1,        95.5,       103.3,         0.0,         0.0,         0.0,         0.0
"Line.SW3"              ,   2,       -95.5,      -103.3
"Line.SW4"              ,   1,       204.8,       -65.3,         0.0,         0.0,         0.0,         0.0
"Line.SW4"              ,   2,      -204.8,        65.3
"Line.SW5"              ,   1,        70.2,        35.1,         0.0,         0.0,         0.0,         0.0
"Line.SW5"              ,   2,       -70.2,       -35.1
"Line.XFM1"             ,   1,        -0.0,         0.0,         0.0,         0.0,         0.0,         0.0
"Line.XFM1"             ,   2,         0.0,        -0.0
"Capacitor.C83"         ,   1,         0.0,      -189.1,         0.0,         0.0,         0.0,         0.0
"Capacitor.C83"         ,   2,         0.0,         0.0
"Capacitor.C88"         ,   1,         0.0,       -15.6,         0.0,         0.0,         0.0,         0.0
"Capacitor.C88"         ,   2,         0.0,         0.0
"Capacitor.C90"         ,   1,         0.0,       -15.6,         0.0,         0.0,         0.0,         0.0
"Capacitor.C90"         ,   2,         0.0,         0.0
"Capacitor.C92"         ,   1,         0.0,       -15.6,         0.0,         0.0,         0.0,         0.0
"Capacitor.C92"         ,   2,         0.0,         0.0
"Transformer.REG1A"     ,   1,       512.2,       196.7,         0.0,         0.0,         0.0,         0.0
"Transformer.REG1A"     ,   2,      -512.2,      -196.7
"Transformer.REG2A"     ,   1,        13.1,         6.6,         0.0,         0.0,         0.0,         0.0
"Transformer.REG2A"     ,   2,       -13.1,        -6.6
"Transformer.REG3A"     ,   1,        17.5,         8.8,         0.0,         0.0,         0.0,         0.0
"Transformer.REG3A"     ,   2,       -17.5,        -8.8
"Transformer.REG4A"     ,   1,       204.8,       -65.3,         0.0,         0.0,         0.0,         0.0
"Transformer.REG4A"     ,   2,      -204.8,        65.3
"Load.S1"               ,   1,         8.8,         4.4
"Load.S2"               ,   1,         4.4,         2.2
"Load.S4"               ,   1,         8.8,         4.4
"Load.S5"               ,   1,         4.4,         2.2
"Load.S6"               ,   1,         8.8,         4.4
"Load.S7"               ,   1,         4.4,         2.2
"Load.S9"               ,   1,         8.8,         4.4
"Load.S10"              ,   1,         4.4,         2.2
"Load.S11"              ,   1,         8.8,         4.4
"Load.S12"              ,   1,         4.4,         2.2
"Load.S16"              ,   1,         8.8,         4.4
"Load.S17"              ,   1,         4.4,         2.2
"Load.S19"              ,   1,         8.8,         4.4
"Load.S20"              ,   1,         8.8,         4.4
"Load.S22"              ,   1,         8.8,         4.4
"Load.S24"              ,   1,         8.8,         4.4
"Load.S28"              ,   1,         8.8,         4.4
"Load.S29"              ,   1,         8.8,         4.4
"Load.S30"              ,   1,         8.8,         4.4
"Load.S31"              ,   1,         4.4,         2.2
"Load.S32"              ,   1,         4.4,         2.2
"Load.S33"              ,   1,         8.8,         4.4
"Load.S34"              ,   1,         8.8,         4.4
"Load.S35"              ,   1,         8.8,         4.4
"Load.S37"              ,   1,         8.8,         4.4
"Load.S38"              ,   1,         4.4,         2.2
"Load.S39"              ,   1,         4.4,         2.2
"Load.S41"              ,   1,         4.4,         2.2
"Load.S42"              ,   1,         4.4,         2.2
"Load.S43"              ,   1,         8.8,         4.4
"Load.S45"              ,   1,         4.4,         2.2
"Load.S46"              ,   1,         4.4,         2.2
"Load.S47"              ,   1,        23.0,        16.4
"Load.S48"              ,   1,        46.0,        32.9
"Load.S49"              ,   1,        30.7,        20.8
"Load.S50"              ,   1,         8.8,         4.4
"Load.S51"              ,   1,         4.4,         2.2
"Load.S52"              ,   1,         8.8,         4.4
"Load.S53"              ,   1,         8.8,         4.4
"Load.S55"              ,   1,         4.4,         2.2
"Load.S56"              ,   1,         4.4,         2.2
"Load.S58"              ,   1,         4.4,         2.2
"Load.S59"              ,   1,         4.4,         2.2
"Load.S60"              ,   1,         4.4,         2.2
"Load.S62"              ,   1,         8.8,         4.4
"Load.S63"              ,   1,         8.8,         4.4
"Load.S64"              ,   1,        16.4,         7.7
"Load.S65"              ,   1,        30.7,        21.9
"Load.S66"              ,   1,        16.4,         7.7
"Load.S68"              ,   1,         4.4,         2.2
"Load.S69"              ,   1,         8.8,         4.4
"Load.S70"              ,   1,         4.4,         2.2
"Load.S71"              ,   1,         8.8,         4.4
"Load.S73"              ,   1,         8.8,         4.4
"Load.S74"              ,   1,         8.8,         4.4
"Load.S75"              ,   1,         8.8,         4.4
"Load.S76"              ,   1,        53.7,        39.4
"Load.S77"              ,   1,         8.8,         4.4
"Load.S79"              ,   1,         8.8,         4.4
"Load.S80"              ,   1,         8.8,         4.4
"Load.S82"              ,   1,         8.8,         4.4
"Load.S83"              ,   1,         4.4,         2.2
"Load.S84"              ,   1,         4.4,         2.2
"Load.S85"              ,   1,         8.8,         4.4
"Load.S86"              ,   1,         4.4,         2.2
"Load.S87"              ,   1,         8.8,         4.4
"Load.S88"              ,   1,         8.8,         4.4
"Load.S90"              ,   1,         8.8,         4.4
"Load.S92"              ,   1,         8.8,         4.4
"Load.S94"              ,   1,         8.8,         4.4
"Load.S95"              ,   1,         4.4,         2.2
"Load.S96"              ,   1,         4.4,         2.2
"Load.S98"              ,   1,         8.8,         4.4
"Load.S99"              ,   1,         8.8,         4.4
"Load.S100"             ,   1,         8.8,         4.4
"Load.S102"             ,   1,         4.4,         2.2
"Load.S103"             ,   1,         8.8,         4.4
"Load.S104"             ,   1,         8.8,         4.4
"Load.S106"             ,   1,         8.8,         4.4
"Load.S107"             ,   1,         8.8,         4.4
"Load.S109"             ,   1,         8.8,         4.4
"Load.S111"             ,   1,         4.4,         2.2
"Load.S112"             ,   1,         4.4,         2.2
"Load.S113"             ,   1,         8.8,         4.4
"Load.S114"             ,   1,         4.4,         2.2
"PVSystem.9"            ,   1,       -13.3,        -0.0
"PVSystem.28"           ,   1,       -13.3,        -0.0
"PVSystem.48"           ,   1,       -70.0,        -0.0
"PVSystem.58"           ,   1,        -6.7,        -0.0
"PVSystem.65"           ,   1,       -46.7,        -0.0
"PVSystem.76"           ,   1,       -81.7,        -0.0
"PVSystem.87"           ,   1,       -13.3,        -0.0
"PVSystem.100"          ,   1,       -13.3,        -0.0
"Storage.BATTERY9"      ,   1,         0.0,         0.0
"Storage.BATTERY28"     ,   1,         0.0,         0.0
"Storage.BATTERY48"     ,   1,         0.0,         0.0
"Storage.BATTERY58"     ,   1,         0.0,         0.0
"Storage.BATTERY65"     ,   1,         0.0,         0.0
"Storage.BATTERY76"     ,   1,         0.0,         0.0
"Storage.BATTERY87"     ,   1,         0.0,         0.0
"Storage.BATTERY100"    ,   1,         0.0,         0.0
